[General]
network = wirelessp2p
sim-time-limit = 100s

*.host*.ipv4.arp.typename = "GlobalArp"
*.configurator.config = xmldoc("C:/Users/admin/Downloads/omnetpp-6.0.3-windows-x86_64/omnetpp-6.0.3/samples/WirelessP2PNetwork/simulations/config.xml")
*.host*.forwarding = true

# Each host has two apps: UdpBasicApp (sender) and UdpSink (receiver)
*.host*.numApps = 2

# App 0: UdpBasicApp (sender)
*.host*.app[0].typename = "UdpBasicApp"
*.host*.app[0].destAddresses = "host1 host2 host3 host4 host5"
*.host*.app[0].messageLength = 1000B
*.host*.app[0].sendInterval = exponential(12ms)
*.host*.app[0].packetName = "UDPData"
*.host*.app[0].destPort = 5000

# Staggered start times for other hosts (adjust as needed)


# App 1: UdpSink (receiver)
*.host*.app[1].typename = "UdpSink"
*.host*.app[1].localPort = 5000  # Port number for receiving
*.host*.app[1].recordStats = true  # Record statistics for received packets

# WLAN configuration
*.host*.wlan.typename = "IdealWirelessNic"
*.host*.wlan.mac.address = auto
*.host*.wlan.radio.transmitter.power = 3mW
*.host*.wlan.radio.receiver.sensitivity = -85dBm
*.host*.wlan.radio.transmitter.communicationRange = 500m

*.host*.**.bitrate = 1Mbps

# Enable packet flow visualization
*.visualizer.packetDropVisualizer.displayPacketDrops = true
*.visualizer.packetDropVisualizer.lineColor = "red"  # Color of packet drop lines for better distinction
*.visualizer.packetFlowVisualizer.displayPackets = true  # Enable the packet flow visualizer
*.visualizer.packetFlowVisualizer.packetFilter = "UDPData"  # Show only UDP packets
*.visualizer.packetFlowVisualizer.lineColor = "blue"  # Color of packet flow lines
*.visualizer.packetFlowVisualizer.lineWidth = 2  # Width of packet flow lines
*.visualizer.packetFlowVisualizer.lineSpeed = 50  # Faster animation speed for packet flow

# Modeling energy consumption
*.host*.wlan[0].radio.energyConsumer.typename = "StateBasedEpEnergyConsumer"
*.host*.wlan[0].radio.energyConsumer.offPowerConsumption = 0mW
*.host*.wlan[0].radio.energyConsumer.sleepPowerConsumption = 1mW
*.host*.wlan[0].radio.energyConsumer.switchingPowerConsumption = 1mW
*.host*.wlan[0].radio.energyConsumer.receiverIdlePowerConsumption = 2mW
*.host*.wlan[0].radio.energyConsumer.receiverBusyPowerConsumption = 5mW
*.host*.wlan[0].radio.energyConsumer.receiverReceivingPowerConsumption = 10mW
*.host*.wlan[0].radio.energyConsumer.transmitterIdlePowerConsumption = 2mW
*.host*.wlan[0].radio.energyConsumer.transmitterTransmittingPowerConsumption = 100mW

*.host*.energyStorage.typename = "IdealEpEnergyStorage"
